<?xml version="1.0" encoding="UTF-8"?>

<!-- generated on 2024-02-08 00:09:21 by Eclipse SUMO sumo Version 1.18.0
-->

<configuration xmlns:xsi="http://www.w3.org/2001/XMLSchema-instance" xsi:noNamespaceSchemaLocation="http://sumo.dlr.de/xsd/sumoConfiguration.xsd">

    <input>
        <net-file value="singlelane.net.xml"/>
        <route-files value="singlelane.rou.xml"/>
        <additional-files value="singlelane.add.xml"/>
    </input>

</configuration>
