<?xml version="1.0" encoding="UTF-8"?>

<!-- generated on 2024-02-08 00:14:21 by Eclipse SUMO netedit Version 1.18.0
<configuration xmlns:xsi="http://www.w3.org/2001/XMLSchema-instance" xsi:noNamespaceSchemaLocation="http://sumo.dlr.de/xsd/neteditConfiguration.xsd">

    <input>
        <sumocfg-file value="D:\Github\Reinforment_learning_for_platooning\assets\maps\singlelane\singlelane.sumocfg"/>
        <sumo-net-file value="D:\Github\Reinforment_learning_for_platooning\assets\maps\singlelane\singlelane.net.xml"/>
    </input>

    <output>
        <output-file value="D:\Github\Reinforment_learning_for_platooning\assets\maps\singlelane\singlelane.net.xml"/>
    </output>

    <processing>
        <offset.disable-normalization value="true"/>
    </processing>

    <junctions>
        <no-turnarounds value="true"/>
    </junctions>

    <netedit>
        <new-network value="false"/>
    </netedit>

</configuration>
-->

<net version="1.16" junctionCornerDetail="5" limitTurnSpeed="5.50" xmlns:xsi="http://www.w3.org/2001/XMLSchema-instance" xsi:noNamespaceSchemaLocation="http://sumo.dlr.de/xsd/net_file.xsd">

    <location netOffset="0.00,0.00" convBoundary="-89.98,-95.54,228.49,109.82" origBoundary="10000000000.00,10000000000.00,-10000000000.00,-10000000000.00" projParameter="!"/>

    <edge id=":J1_0" function="internal">
        <lane id=":J1_0_0" index="0" speed="4.31" length="1.15" shape="-11.82,107.84 -11.56,108.05 -11.35,108.16 -11.12,108.21 -10.78,108.22"/>
    </edge>
    <edge id=":J2_0" function="internal">
        <lane id=":J2_0_0" index="0" speed="4.27" length="1.21" shape="162.07,108.02 162.42,108.01 162.67,107.96 162.88,107.83 163.15,107.60"/>
    </edge>
    <edge id=":J3_0" function="internal">
        <lane id=":J3_0_0" index="0" speed="4.16" length="1.32" shape="226.38,49.40 226.60,49.15 226.76,48.87 226.86,48.56 226.89,48.23"/>
    </edge>
    <edge id=":J4_0" function="internal">
        <lane id=":J4_0_0" index="0" speed="4.15" length="1.34" shape="226.89,-40.04 226.86,-40.38 226.76,-40.70 226.60,-40.98 226.36,-41.23"/>
    </edge>
    <edge id=":J5_0" function="internal">
        <lane id=":J5_0_0" index="0" speed="4.29" length="1.18" shape="169.82,-92.05 169.55,-92.28 169.34,-92.40 169.10,-92.45 168.76,-92.46"/>
    </edge>
    <edge id=":J6_0" function="internal">
        <lane id=":J6_0_0" index="0" speed="30.00" length="0.79" shape="-16.61,-93.93 -16.85,-93.93 -17.01,-93.91 -17.16,-93.85 -17.37,-93.75"/>
    </edge>
    <edge id=":J7_0" function="internal">
        <lane id=":J7_0_0" index="0" speed="4.01" length="1.70" shape="-84.61,-58.69 -84.98,-58.44 -85.24,-58.13 -85.41,-57.76 -85.47,-57.32"/>
    </edge>
    <edge id=":J8_0" function="internal">
        <lane id=":J8_0_0" index="0" speed="4.11" length="1.43" shape="-88.34,41.48 -88.31,41.85 -88.21,42.18 -88.03,42.48 -87.78,42.74"/>
    </edge>

    <edge id="E0" from="J1" to="J2" priority="-1">
        <lane id="E0_0" index="0" speed="30.00" length="172.85" shape="-10.78,108.22 162.07,108.02"/>
    </edge>
    <edge id="E1" from="J2" to="J3" priority="-1">
        <lane id="E1_0" index="0" speed="30.00" length="85.93" shape="163.15,107.60 226.38,49.40"/>
    </edge>
    <edge id="E2" from="J3" to="J4" priority="-1">
        <lane id="E2_0" index="0" speed="30.00" length="88.27" shape="226.89,48.23 226.89,-40.04"/>
    </edge>
    <edge id="E3" from="J4" to="J5" priority="-1">
        <lane id="E3_0" index="0" speed="30.00" length="76.03" shape="226.36,-41.23 169.82,-92.05"/>
    </edge>
    <edge id="E4" from="J5" to="J6" priority="-1">
        <lane id="E4_0" index="0" speed="30.00" length="185.38" shape="168.76,-92.46 -16.61,-93.93"/>
    </edge>
    <edge id="E5" from="J6" to="J7" priority="-1">
        <lane id="E5_0" index="0" speed="30.00" length="75.84" shape="-17.37,-93.75 -84.61,-58.69"/>
    </edge>
    <edge id="E6" from="J7" to="J8" priority="-1">
        <lane id="E6_0" index="0" speed="30.00" length="98.84" shape="-85.47,-57.32 -88.34,41.48"/>
    </edge>
    <edge id="E7" from="J8" to="J1" priority="-1">
        <lane id="E7_0" index="0" speed="30.00" length="100.03" shape="-87.78,42.74 -11.82,107.84"/>
    </edge>

    <junction id="J1" type="priority" x="-11.96" y="109.82" incLanes="E7_0" intLanes=":J1_0_0" shape="-10.78,109.82 -10.78,106.62 -12.86,109.05 -12.20,109.57 -11.92,109.71 -11.63,109.78 -11.26,109.81">
        <request index="0" response="0" foes="0" cont="0"/>
    </junction>
    <junction id="J2" type="priority" x="163.32" y="109.62" incLanes="E0_0" intLanes=":J2_0_0" shape="164.23,108.78 162.07,106.42 162.07,109.62 162.96,109.58 163.27,109.49 163.55,109.35 163.86,109.11">
        <request index="0" response="0" foes="0" cont="0"/>
    </junction>
    <junction id="J3" type="priority" x="228.49" y="49.63" incLanes="E1_0" intLanes=":J3_0_0" shape="228.49,48.23 225.29,48.23 227.46,50.58 228.03,49.90 228.24,49.52 228.38,49.11 228.46,48.68">
        <request index="0" response="0" foes="0" cont="0"/>
    </junction>
    <junction id="J4" type="priority" x="228.49" y="-41.47" incLanes="E2_0" intLanes=":J4_0_0" shape="225.29,-40.04 228.49,-40.04 228.38,-40.94 228.23,-41.35 228.02,-41.73 227.76,-42.09 227.43,-42.42">
        <request index="0" response="0" foes="0" cont="0"/>
    </junction>
    <junction id="J5" type="priority" x="169.98" y="-94.05" incLanes="E3_0" intLanes=":J5_0_0" shape="168.75,-90.86 170.88,-93.24 170.21,-93.79 169.94,-93.93 169.64,-94.02 169.26,-94.05 168.77,-94.06">
        <request index="0" response="0" foes="0" cont="0"/>
    </junction>
    <junction id="J6" type="priority" x="-17.40" y="-95.54" incLanes="E4_0" intLanes=":J6_0_0" shape="-16.63,-92.33 -16.60,-95.53 -17.18,-95.52 -17.39,-95.48 -17.58,-95.42 -17.81,-95.32 -18.11,-95.17">
        <request index="0" response="0" foes="0" cont="0"/>
    </junction>
    <junction id="J7" type="priority" x="-87.02" y="-59.24" incLanes="E5_0" intLanes=":J7_0_0" shape="-83.87,-57.27 -85.35,-60.11 -86.28,-59.42 -86.62,-58.99 -86.86,-58.51 -87.01,-57.96 -87.07,-57.37">
        <request index="0" response="0" foes="0" cont="0"/>
    </junction>
    <junction id="J8" type="priority" x="-89.98" y="42.96" incLanes="E6_0" intLanes=":J8_0_0" shape="-88.82,43.96 -86.74,41.53 -89.94,41.44 -89.83,42.40 -89.68,42.83 -89.46,43.24 -89.17,43.61">
        <request index="0" response="0" foes="0" cont="0"/>
    </junction>

    <connection from="E0" to="E1" fromLane="0" toLane="0" via=":J2_0_0" dir="s" state="M"/>
    <connection from="E1" to="E2" fromLane="0" toLane="0" via=":J3_0_0" dir="r" state="M"/>
    <connection from="E2" to="E3" fromLane="0" toLane="0" via=":J4_0_0" dir="r" state="M"/>
    <connection from="E3" to="E4" fromLane="0" toLane="0" via=":J5_0_0" dir="s" state="M"/>
    <connection from="E4" to="E5" fromLane="0" toLane="0" via=":J6_0_0" dir="s" state="M"/>
    <connection from="E5" to="E6" fromLane="0" toLane="0" via=":J7_0_0" dir="r" state="M"/>
    <connection from="E6" to="E7" fromLane="0" toLane="0" via=":J8_0_0" dir="r" state="M"/>
    <connection from="E7" to="E0" fromLane="0" toLane="0" via=":J1_0_0" dir="s" state="M"/>

    <connection from=":J1_0" to="E0" fromLane="0" toLane="0" dir="s" state="M"/>
    <connection from=":J2_0" to="E1" fromLane="0" toLane="0" dir="s" state="M"/>
    <connection from=":J3_0" to="E2" fromLane="0" toLane="0" dir="r" state="M"/>
    <connection from=":J4_0" to="E3" fromLane="0" toLane="0" dir="r" state="M"/>
    <connection from=":J5_0" to="E4" fromLane="0" toLane="0" dir="s" state="M"/>
    <connection from=":J6_0" to="E5" fromLane="0" toLane="0" dir="s" state="M"/>
    <connection from=":J7_0" to="E6" fromLane="0" toLane="0" dir="r" state="M"/>
    <connection from=":J8_0" to="E7" fromLane="0" toLane="0" dir="r" state="M"/>

</net>
